/*--------------------------------*- C++ -*----------------------------------*\
  =========                 |
  \\      /  F ield         | OpenFOAM: The Open Source CFD Toolbox
   \\    /   O peration     | Website:  https://openfoam.org
    \\  /    A nd           | Version:  7
     \\/     M anipulation  |
\*---------------------------------------------------------------------------*/
FoamFile
{
    version     2.0;
    format      ascii;
    class       volScalarField;
    object      omega;
}
// * * * * * * * * * * * * * * * * * * * * * * * * * * * * * * * * * * * * * //

#include        "include/initialConditions"

dimensions      [0 0 -1 0 0 0 0];

internalField   uniform $turbulentOmega;

boundaryField
{
    //- Set patchGroups for constraint patches
    #includeEtc "caseDicts/setConstraintTypes"

    #include "include/fixedInlet"

    outlet
    {
        type            inletOutlet;
        inletValue      $internalField;
        value           $internalField;
    }

    sym
    {
        type            symmetry;
    }

    RW_MP
    {
        type            omegaWallFunction;
        value           $internalField;
    }

    RW_MP-FINE
    {
        type            omegaWallFunction;
        value           $internalField;
    }

    RW_END
    {
        type            omegaWallFunction;
        value           $internalField;
    }

    RW_END-FINE
    {
        type            omegaWallFunction;
        value           $internalField;
    }
}


// ************************************************************************* //
